LAMMPS (23 Jun 2022)
package intel 1
units real
boundary p p p

atom_style full
bond_style harmonic
angle_style harmonic
special_bonds lj/coul 0.0 0.0 0.5

pair_style lj/cut/coul/long 10.0
kspace_style pppm 1.0e-6

comm_modify vel yes
read_data data.lammps
Reading data file ...
  orthogonal box = (-12 -12 -12) to (12 12 12)
  reading atoms ...
  2500 atoms
  scanning bonds ...
  scanning angles ...
  reading bonds ...
  2000 bonds
  reading angles ...
  500 angles
Finding 1-2 1-3 1-4 neighbors ...
     4 = max # of 1-2 neighbors
     3 = max # of 1-3 neighbors
     3 = max # of 1-4 neighbors
     4 = max # of special neighbors

pair_coeff    1    1      0.210939     3.183950  # ODw ODw
pair_coeff    *   2*      0.000000     0.0

group ATOMS type 1:3
2000 atoms in group ATOMS
group CORES type 1
500 atoms in group CORES
group DRUDES type 4
500 atoms in group DRUDES

variable TK equal 300.0
variable TDK equal 1.0
variable PBAR equal 1.0

neighbor 2.0 bin

timestep 1.0

fix DRUDE all drude C N N D

velocity ATOMS create 300 12345
velocity DRUDES create 1 12345

delete_bonds ATOMS multi
System init for delete_bonds ...
PPPM initialization ...
  G vector (1/distance) = 0.36745437
  grid = 30 30 30
  stencil order = 7
  estimated absolute RMS force accuracy = 0.00029378512
  estimated relative force accuracy = 8.8472515e-07
  3d grid and FFT values/proc = 22464 7200
Using INTEL Package without Coprocessor.
Compiler: Intel Classic C++ 19.10.0 / Intel(R) C++ g++ 8.5 mode
SIMD compiler directives: Enabled
Precision: mixed
Generated 0 of 6 mixed pair_coeff terms from geometric mixing rule
Rebuild special list taking Drude particles into account
Old max number of 1-2 to 1-4 neighbors: 4
New max number of 1-2 to 1-4 neighbors: 4 (+0)
  update every 1 steps, delay 10 steps, check yes
Deleting bonds ...
  2000 total bonds, 500 turned on, 1500 turned off
  500 total angles, 0 turned on, 500 turned off
  0 total dihedrals, 0 turned on, 0 turned off
  0 total impropers, 0 turned on, 0 turned off

fix TEMP all langevin/drude 300 100. 1256 1 20. 13977 zero yes
fix NPH ATOMS rigid/nph/small molecule iso 1 1 500.
  500 rigid bodies with 2000 atoms
  0.83209864 = max distance from body owner to body atom
fix NVE DRUDES nve

compute TEMP all temp/drude

thermo_style custom step cpu etotal ke pe press vol density c_TEMP[1] c_TEMP[2]
thermo 20

run 10000
PPPM initialization ...
  G vector (1/distance) = 0.36745437
  grid = 30 30 30
  stencil order = 7
  estimated absolute RMS force accuracy = 0.00029378512
  estimated relative force accuracy = 8.8472515e-07
  3d grid and FFT values/proc = 22464 7200
Generated 0 of 6 mixed pair_coeff terms from geometric mixing rule
Step          CPU           TotEng         KinEng         PotEng         Press          Volume        Density       c_TEMP[1]      c_TEMP[2]
0   0              4582.0735      903.41148      3678.662       244449.82      13824          1.0819809      295.64644      14.858785
Averages over the last 251 of 501 rows, steps 5000 to 10000:
TotEng KinEng PotEng Press Volume Density c_TEMP[1] c_TEMP[2]
-4007.48 891.703 -4899.18 47.915 15143.2 0.987796 298.156 1.98596
Loop time of 52.2698 on 4 procs for 10000 steps with 2500 atoms
