LAMMPS (17 Apr 2024)
units real
boundary p p p

atom_style full
bond_style harmonic
angle_style harmonic
special_bonds lj/coul 0.0 0.0 0.5

pair_style lj/cut/coul/long 6.0
kspace_style ewald 1.0e-6

comm_modify vel yes

read_data       data.lammps
Reading data file ...
  orthogonal box = (-2 -2 -2) to (2 2 2)
  reading atoms ...
  5 atoms
  scanning bonds ...
  scanning angles ...
  orthogonal box = (-2 -2 -2) to (2 2 2)
  reading bonds ...
  4 bonds
  reading angles ...
  1 angles
Finding 1-2 1-3 1-4 neighbors ...
     4 = max # of 1-2 neighbors
     3 = max # of 1-3 neighbors
     3 = max # of 1-4 neighbors
     4 = max # of special neighbors
replicate       4 4 4
Replication is creating a 4x4x4 = 64 times larger system...
  orthogonal box = (-2 -2 -2) to (14 14 14)
  320 atoms
  256 bonds
  64 angles
Finding 1-2 1-3 1-4 neighbors ...
     4 = max # of 1-2 neighbors
     3 = max # of 1-3 neighbors
     3 = max # of 1-4 neighbors
     4 = max # of special neighbors
  replicate CPU = 0.001 seconds

pair_coeff    1    1      0.210939     3.183950  # ODw ODw
pair_coeff    *   2*      0.000000     0.0

group ATOMS type 1:3
256 atoms in group ATOMS
group CORES type 1
64 atoms in group CORES
group DRUDES type 4
64 atoms in group DRUDES

variable TK equal 300.0
variable TDK equal 1.0
variable PBAR equal 1.0

neighbor 2.0 bin

timestep 0.5

fix DRUDE all drude C N N D

velocity ATOMS create 300 12345

delete_bonds ATOMS multi
System init for delete_bonds ...
Ewald initialization ...
  G vector (1/distance) = 0.59574534
  estimated absolute RMS force accuracy = 0.0004161019
  estimated relative force accuracy = 1.2530785e-06
  KSpace vectors: actual max1d max3d = 2787 11 6083
                  kxmax kymax kzmax  = 11 11 11
Generated 0 of 6 mixed pair_coeff terms from geometric mixing rule
Rebuild special list taking Drude particles into account
Old max number of 1-2 to 1-4 neighbors: 4
New max number of 1-2 to 1-4 neighbors: 4 (+0)
Deleting bonds ...
  256 total bonds, 64 turned on, 192 turned off
  64 total angles, 0 turned on, 64 turned off
  0 total dihedrals, 0 turned on, 0 turned off
  0 total impropers, 0 turned on, 0 turned off

#fix NVE DRUDES nve

fix dmin all min/drude
fix NPT ATOMS rigid/npt/small molecule temp 300 300 100. iso 1 1 500. dilate ATOMS
  64 rigid bodies with 256 atoms
  0.8320896 = max distance from body owner to body atom

compute TEMP all temp/drude

thermo_style custom step cpu etotal ke pe press vol density temp c_TEMP[1] c_TEMP[2]
thermo 20

dump            1 all custom 1 dump.coord id type x y z vx vy vz ix iy iz
dump_modify     1 sort id format line "%5d %3d %13.8f %13.8f %13.8f %13.8f %13.8f %13.8f %3d %3d %3d" flush yes

run 2000
Ewald initialization ...
  G vector (1/distance) = 0.59574534
  estimated absolute RMS force accuracy = 0.0004161019
  estimated relative force accuracy = 1.2530785e-06
  KSpace vectors: actual max1d max3d = 2787 11 6083
                  kxmax kymax kzmax  = 11 11 11
Generated 0 of 6 mixed pair_coeff terms from geometric mixing rule
Step          CPU           TotEng         KinEng         PotEng         Press          Volume        Density          Temp        c_TEMP[1]      c_TEMP[2]
0   0              106.14703      104.32137      1.8256586      228828.16      4096           0.46741576     183.23381      272.5698       1.6988062
Averages over the last 51 of 101 rows, steps 1000 to 2000:
TotEng KinEng PotEng Press Volume Density Temp c_TEMP[1] c_TEMP[2]
-113.014 240.405 -353.419 1823.62 9692.18 0.226104 422.255 627.664 4.8399
Loop time of 29842.1 on 1 procs for 2000 steps with 320 atoms
